Conformer_6
     RDKit          3D

 57 59  0  0  0  0  0  0  0  0999 V2000
    1.4992   -0.2370    4.0130 C   0  0  0  0  0  0  0  0  0  0  0  0
    0.1329   -0.6654    3.4793 C   0  0  0  0  0  0  0  0  0  0  0  0
    0.1168   -0.7501    1.9635 C   0  0  0  0  0  0  0  0  0  0  0  0
   -0.6480    0.2947    1.2334 C   0  0  0  0  0  0  0  0  0  0  0  0
   -1.6850   -0.0713    0.3600 C   0  0  0  0  0  0  0  0  0  0  0  0
   -2.3695    0.9007   -0.3732 C   0  0  0  0  0  0  0  0  0  0  0  0
   -2.0243    2.2589   -0.2452 C   0  0  0  0  0  0  0  0  0  0  0  0
   -2.6432    3.2722   -0.9940 O   0  0  0  0  0  0  0  0  0  0  0  0
   -3.4748    3.0670   -2.1379 C   0  0  0  0  0  0  0  0  0  0  0  0
   -2.6680    2.5203   -3.3252 C   0  0  0  0  0  0  0  0  0  0  0  0
   -1.3831    3.2381   -3.4741 N   0  0  0  0  0  0  0  0  0  0  0  0
   -0.4194    2.4083   -4.2148 C   0  0  0  0  0  0  0  0  0  0  0  0
   -1.5715    4.5199   -4.1749 C   0  0  0  0  0  0  0  0  0  0  0  0
   -1.0227    2.6249    0.6610 C   0  0  0  0  0  0  0  0  0  0  0  0
   -0.3389    1.6534    1.3968 C   0  0  0  0  0  0  0  0  0  0  0  0
    0.7621   -1.7405    1.2838 C   0  0  0  0  0  0  0  0  0  0  0  0
    1.3634   -2.9039    1.9758 C   0  0  0  0  0  0  0  0  0  0  0  0
    0.5506   -3.8438    2.6310 C   0  0  0  0  0  0  0  0  0  0  0  0
    1.1233   -4.9598    3.2484 C   0  0  0  0  0  0  0  0  0  0  0  0
    2.5067   -5.1534    3.2014 C   0  0  0  0  0  0  0  0  0  0  0  0
    3.3188   -4.2350    2.5300 C   0  0  0  0  0  0  0  0  0  0  0  0
    2.7498   -3.1179    1.9111 C   0  0  0  0  0  0  0  0  0  0  0  0
    0.9218   -1.6935   -0.1935 C   0  0  0  0  0  0  0  0  0  0  0  0
    1.5022   -0.5744   -0.8176 C   0  0  0  0  0  0  0  0  0  0  0  0
    1.6396   -0.5347   -2.2080 C   0  0  0  0  0  0  0  0  0  0  0  0
    1.2113   -1.6140   -2.9849 C   0  0  0  0  0  0  0  0  0  0  0  0
    0.6521   -2.7385   -2.3717 C   0  0  0  0  0  0  0  0  0  0  0  0
    0.5120   -2.7823   -0.9811 C   0  0  0  0  0  0  0  0  0  0  0  0
    2.2694   -1.0023    3.7889 H   0  0  0  0  0  0  0  0  0  0  0  0
    1.8104    0.7298    3.5665 H   0  0  0  0  0  0  0  0  0  0  0  0
    1.4429   -0.1144    5.1150 H   0  0  0  0  0  0  0  0  0  0  0  0
   -0.1582   -1.6328    3.9350 H   0  0  0  0  0  0  0  0  0  0  0  0
   -0.6224    0.0743    3.8240 H   0  0  0  0  0  0  0  0  0  0  0  0
   -1.9566   -1.1131    0.2399 H   0  0  0  0  0  0  0  0  0  0  0  0
   -3.1624    0.5824   -1.0342 H   0  0  0  0  0  0  0  0  0  0  0  0
   -3.9260    4.0406   -2.4200 H   0  0  0  0  0  0  0  0  0  0  0  0
   -4.3167    2.3860   -1.8909 H   0  0  0  0  0  0  0  0  0  0  0  0
   -3.2790    2.5836   -4.2541 H   0  0  0  0  0  0  0  0  0  0  0  0
   -2.4889    1.4386   -3.1400 H   0  0  0  0  0  0  0  0  0  0  0  0
   -0.2064    1.4755   -3.6497 H   0  0  0  0  0  0  0  0  0  0  0  0
    0.5472    2.9455   -4.3268 H   0  0  0  0  0  0  0  0  0  0  0  0
   -0.8086    2.1424   -5.2231 H   0  0  0  0  0  0  0  0  0  0  0  0
   -1.9858    4.3670   -5.1965 H   0  0  0  0  0  0  0  0  0  0  0  0
   -2.2542    5.1797   -3.6005 H   0  0  0  0  0  0  0  0  0  0  0  0
   -0.6018    5.0567   -4.2574 H   0  0  0  0  0  0  0  0  0  0  0  0
   -0.7565    3.6678    0.7779 H   0  0  0  0  0  0  0  0  0  0  0  0
    0.4508    1.9622    2.0680 H   0  0  0  0  0  0  0  0  0  0  0  0
   -0.5246   -3.7152    2.6558 H   0  0  0  0  0  0  0  0  0  0  0  0
    0.4940   -5.6780    3.7578 H   0  0  0  0  0  0  0  0  0  0  0  0
    2.9485   -6.0185    3.6786 H   0  0  0  0  0  0  0  0  0  0  0  0
    4.3890   -4.3904    2.4866 H   0  0  0  0  0  0  0  0  0  0  0  0
    3.3881   -2.4150    1.3900 H   0  0  0  0  0  0  0  0  0  0  0  0
    1.8496    0.2646   -0.2276 H   0  0  0  0  0  0  0  0  0  0  0  0
    2.0800    0.3324   -2.6830 H   0  0  0  0  0  0  0  0  0  0  0  0
    1.3170   -1.5809   -4.0615 H   0  0  0  0  0  0  0  0  0  0  0  0
    0.3251   -3.5758   -2.9744 H   0  0  0  0  0  0  0  0  0  0  0  0
    0.0698   -3.6569   -0.5200 H   0  0  0  0  0  0  0  0  0  0  0  0
  1  2  1  0
  2  3  1  0
  3  4  1  0
  4  5  2  0
  5  6  1  0
  6  7  2  0
  7  8  1  0
  8  9  1  0
  9 10  1  0
 10 11  1  0
 11 12  1  0
 11 13  1  0
  7 14  1  0
 14 15  2  0
  3 16  2  3
 16 17  1  0
 17 18  2  0
 18 19  1  0
 19 20  2  0
 20 21  1  0
 21 22  2  0
 16 23  1  0
 23 24  2  0
 24 25  1  0
 25 26  2  0
 26 27  1  0
 27 28  2  0
 15  4  1  0
 22 17  1  0
 28 23  1  0
  1 29  1  0
  1 30  1  0
  1 31  1  0
  2 32  1  0
  2 33  1  0
  5 34  1  0
  6 35  1  0
  9 36  1  0
  9 37  1  0
 10 38  1  0
 10 39  1  0
 12 40  1  0
 12 41  1  0
 12 42  1  0
 13 43  1  0
 13 44  1  0
 13 45  1  0
 14 46  1  0
 15 47  1  0
 18 48  1  0
 19 49  1  0
 20 50  1  0
 21 51  1  0
 22 52  1  0
 24 53  1  0
 25 54  1  0
 26 55  1  0
 27 56  1  0
 28 57  1  0
M  END
>  <Energy>  (1) 
74.16

>  <GasteigerCharges>  (1) 
-0.0612, -0.0295, -0.0326, -0.0216, -0.0510, -0.0194, 0.1189, -0.4923, 0.1008, 0.0319, -0.3060, -0.0136, -0.0136, -0.0194, -0.0510, -0.0073, -0.0175, -0.0544, -0.0617, -0.0622, -0.0617, -0.0544, -0.0175, -0.0544, -0.0617, -0.0622, -0.0617, -0.0544, 0.0234, 0.0234, 0.0234, 0.0314, 0.0314, 0.0630, 0.0662, 0.0719, 0.0719, 0.0466, 0.0466, 0.0394, 0.0394, 0.0394, 0.0394, 0.0394, 0.0394, 0.0662, 0.0630, 0.0629, 0.0623, 0.0623, 0.0623, 0.0629, 0.0629, 0.0623, 0.0623, 0.0623, 0.0629

